/batch
/config,noeldb,1     ! force off writing results to database
*get,_wallstrt,active,,time,wall
! ANSYS input file written by Workbench version 2023 R2
! File used for geometry attach: C:\Users\Administrator\Documents\Discovery Projects\ansysplusplus_files\dp0\Geom-1\DM\Geom-1.scdoc
/title,ansysplusplus--Structure statique (D5)
! ****** Begin Custom Load Command Snippet ******
/COM, ACT Extensions:
/COM,     LSDYNA, 2023.2
/COM,     5f463412-bd3e-484b-87e7-cbc0a665e474, wbex
/COM,/COM,     ANSYSMotion, 2023.2
/COM,     20180725-3f81-49eb-9f31-41364844c769, wbex
/COM,
! ****** End   Custom Load Command Snippet ******
*DIM,_wb_ProjectScratch_dir,string,248
_wb_ProjectScratch_dir(1) = 'C:\Users\Administrator\Documents\Discovery Projects\_ProjectScratch\Scr076D\'
*DIM,_wb_SolverFiles_dir,string,248
_wb_SolverFiles_dir(1) = 'C:\Users\Administrator\Documents\Discovery Projects\ansysplusplus_files\dp0\SYS-1\MECH\'
*DIM,_wb_userfiles_dir,string,248
_wb_userfiles_dir(1) = 'C:\Users\Administrator\Documents\Discovery Projects\ansysplusplus_files\user_files\'
/com,--- Data in consistent MKS units. See Solving Units in the help system for more information.
/units,MKS
/nopr
/wb,file,start              !  signify a WB generated input file
/prep7
! Turn off shape checking because checks already performed inside WB mesher.
! See help system for more information.
SHPP,OFF,,NOWARN
/nolist
etcon,set             ! allow ANSYS to choose best KEYOP's for 180x elements, resets any applicable keyopt to MAPDL defaults
/com,*********** Nodes for the whole assembly ***********
nblock,3,,1505
(1i9,3e20.9e3)
      709     2.000000000E-02     5.000000000E-04    -1.000000000E-02
      710     2.000000000E-02     5.000000000E-04     0.000000000E+00
      711     2.000000000E-02     5.000000000E-04    -9.000000000E-03
      712     2.000000000E-02     5.000000000E-04    -8.000000000E-03
      713     2.000000000E-02     5.000000000E-04    -7.000000000E-03
      714     2.000000000E-02     5.000000000E-04    -6.000000000E-03
      715     2.000000000E-02     5.000000000E-04    -5.000000000E-03
      716     2.000000000E-02     5.000000000E-04    -4.000000000E-03
      717     2.000000000E-02     5.000000000E-04    -3.000000000E-03
      718     2.000000000E-02     5.000000000E-04    -2.000000000E-03
      719     2.000000000E-02     5.000000000E-04    -1.000000000E-03
      720     0.000000000E+00     5.000000000E-04    -1.000000000E-02
      721     1.000000000E-03     5.000000000E-04    -1.000000000E-02
      722     2.000000000E-03     5.000000000E-04    -1.000000000E-02
      723     3.000000000E-03     5.000000000E-04    -1.000000000E-02
      724     4.000000000E-03     5.000000000E-04    -1.000000000E-02
      725     5.000000000E-03     5.000000000E-04    -1.000000000E-02
      726     6.000000000E-03     5.000000000E-04    -1.000000000E-02
      727     7.000000000E-03     5.000000000E-04    -1.000000000E-02
      728     8.000000000E-03     5.000000000E-04    -1.000000000E-02
! ... 1350 like lines cut
/wb,elem,start            !  set before creation of elements
/com,*********** Elements for Body 1 "Surface moyenne - Corps\Surface moyenne1" ***********
et,1,181
keyo,1,1,0       ! bending and membrane stiffness
keyo,1,3,2
eblock,19,solid,,620
(19i9)
        1        1        1        1        0        0        0        0        4        0        1        1        2        4        3
        1        1        1        1        0        0        0        0        4        0        2        3        4        6        5
        1        1        1        1        0        0        0        0        4        0        3        5        6        8        7
        1        1        1        1        0        0        0        0        4        0        4        7        8       10        9
        1        1        1        1        0        0        0        0        4        0        5        9       10       12       11
        1        1        1        1        0        0        0        0        4        0        6       11       12       14       13
        1        1        1        1        0        0        0        0        4        0        7       13       14       16       15
        1        1        1        1        0        0        0        0        4        0        8       15       16       18       17
        1        1        1        1        0        0        0        0        4        0        9       17       18       20       19
        1        1        1        1        0        0        0        0        4        0       10       19       20       22       21
        1        1        1        1        0        0        0        0        4        0       11       23       24       26       25
        1        1        1        1        0        0        0        0        4        0       12       25       26       28       27
        1        1        1        1        0        0        0        0        4        0       13       27       28       30       29
        1        1        1        1        0        0        0        0        4        0       14       29       30       32       31
        1        1        1        1        0        0        0        0        4        0       15       31       32       34       33
        1        1        1        1        0        0        0        0        4        0       16       33       34       36       35
        1        1        1        1        0        0        0        0        4        0       17       35       36       38       37
        1        1        1        1        0        0        0        0        4        0       18       37       38       40       39
        1        1        1        1        0        0        0        0        4        0       19       39       40       42       41
        1        1        1        1        0        0        0        0        4        0       20       41       42        2        1
! ... 601 like lines cut
!Material Id = {6F109564-FC5F-4896-980B-57A3F07CD939}
/com,*********** Elements for Body 2 "Surface moyenne - Corps\Surface moyenne1" ***********
et,2,281
keyo,2,1,0       ! bending and membrane stiffness
eblock,19,solid,,200
(19i9)
        2        2        2        2        0        0        0        0        8        0      621      789      788      929      769     1113     1115     1059     1058
        2        2        2        2        0        0        0        0        8        0      622      769      779      799      789     1056     1090     1116     1058
        2        2        2        2        0        0        0        0        8        0      623      929      920      780      769     1365     1095     1057     1059
        2        2        2        2        0        0        0        0        8        0      624      780      800      779      769     1093     1091     1056     1057
        2        2        2        2        0        0        0        0        8        0      625      788      787      770      929     1111     1060     1062     1115
        2        2        2        2        0        0        0        0        8        0      626      787      786      938      770     1108     1110     1063     1060
        2        2        2        2        0        0        0        0        8        0      627      938      791      790      770     1123     1118     1061     1063
        2        2        2        2        0        0        0        0        8        0      628      770      790      920      929     1061     1120     1365     1062
        2        2        2        2        0        0        0        0        8        0      629      786      785      771      938     1106     1065     1067     1110
        2        2        2        2        0        0        0        0        8        0      630      785      784      772      771     1103     1069     1064     1065
        2        2        2        2        0        0        0        0        8        0      631      772      921      792      771     1070     1125     1066     1064
        2        2        2        2        0        0        0        0        8        0      632      771      792      791      938     1066     1121     1123     1067
        2        2        2        2        0        0        0        0        8        0      633      784      931      773      772     1105     1073     1068     1069
        2        2        2        2        0        0        0        0        8        0      634      931      783      774      773     1102     1075     1071     1073
        2        2        2        2        0        0        0        0        8        0      635      774      924      793      773     1076     1128     1072     1071
        2        2        2        2        0        0        0        0        8        0      636      773      793      921      772     1072     1127     1070     1068
        2        2        2        2        0        0        0        0        8        0      637      783      782      775      774     1099     1077     1074     1075
        2        2        2        2        0        0        0        0        8        0      638      782      781      939      775     1096     1098     1079     1077
        2        2        2        2        0        0        0        0        8        0      639      939      795      794      775     1134     1129     1078     1079
        2        2        2        2        0        0        0        0        8        0      640      775      794      924      774     1078     1131     1076     1074
! ... 181 like lines cut
!Material Id = {34FCB40B-C376-4F54-BF4D-0D149D534FEC}
/wb,elem,end               !  done creating elements
/com,*********** Send User Defined Coordinate System(s) ***********
csys,0
toffst,273.15,  ! Temperature offset from absolute zero
/com,*********** Set Reference Temperature ***********
tref,22.
/wb,mat,start              !  starting to send materials
/com,*********** Send Materials ***********
Temperature = 'TEMP' ! Temperature
MP,DENS,1,7850,	! kg m^-3
MP,ALPX,1,1.2e-05,	! C^-1
MP,C,1,434,	! J kg^-1 C^-1
MP,KXX,1,60.5,	! W m^-1 C^-1
MP,RSVX,1,1.7e-07,	! kg m^3 A^-2 s^-3
MP,EX,1,200000000000,	! Pa
MP,NUXY,1,0.3,
MP,MURX,1,10000,
MP,UVID,1,5861c8f9-0035-4705-8d0b-4d5d182466ed
MP,UMID,1,59002a79-71c2-428e-906b-55d7dbee100e

Temperature = 'TEMP' ! Temperature
MP,DENS,2,7200,	! kg m^-3
MP,ALPX,2,1.1e-05,	! C^-1
MP,C,2,447,	! J kg^-1 C^-1
MP,KXX,2,52,	! W m^-1 C^-1
MP,RSVX,2,9.6e-08,	! kg m^3 A^-2 s^-3
MP,EX,2,110000000000,	! Pa
MP,NUXY,2,0.28,
MP,MURX,2,10000,
MP,UVID,2,12d9eda0-6be3-45b8-8f44-b57ef79077bf
MP,UMID,2,f60bcced-8a07-4217-aedb-972d67ace671

/wb,mat,end                !  done sending materials
/com,*********** Send Sheet Properties ***********
sectype,1,shell
secdata,1.e-003
secoff,mid

sectype,2,shell
secdata,2.e-003
secoff,mid

!************************* Model Summary ********************
!Surface moyenne - Corps\Surface moyenne1,	Acier standard,	matid,	1
!Surface moyenne - Corps\Surface moyenne1,	Fonte grise,	matid,	2
!************************* End Model Summary ********************
! get the diagonal of the bounding box. Needed later for other things
*get,_xmin,node,,mnloc,x
*get,_ymin,node,,mnloc,y
*get,_zmin,node,,mnloc,z
*get,_xmax,node,,mxloc,x
*get,_ymax,node,,mxloc,y
*get,_zmax,node,,mxloc,z
_ASMDIAG=(_xmax-_xmin)*(_xmax-_xmin)+(_ymax-_ymin)*(_ymax-_ymin)+(_zmax-_zmin)*(_zmax-_zmin)
_ASMDIAG=SQRT(_ASMDIAG)
/wb,contact,start          !  starting to send contact
/com,*********** Create Contact "Li totalement - Surface moyenne - Corps\Surface moyenne1  Surface moyenne - Corps\Surface moyenne1" ***********
/com,            Real Constant Set For Above Contact Is 4 & 3 
*set,tid,4
*set,cid,3
r,tid
r,cid
et,tid,170
et,cid,177
tshape,para
eblock,10,,,20
(15i9)
      821        3        3        3        0      740      768     1001
      822        3        3        3        0      768      767     1053
      823        3        3        3        0      767      766     1051
      824        3        3        3        0      766      765     1049
      825        3        3        3        0      765      764     1047
      826        3        3        3        0      764      763     1045
      827        3        3        3        0      763      762     1043
      828        3        3        3        0      762      761     1041
      829        3        3        3        0      761      760     1039
      830        3        3        3        0      760      759     1037
      831        3        3        3        0      759      758     1035
      832        3        3        3        0      758      757     1033
      833        3        3        3        0      757      756     1031
      834        3        3        3        0      756      755     1029
      835        3        3        3        0      755      754     1027
      836        3        3        3        0      754      753     1025
      837        3        3        3        0      753      752     1023
      838        3        3        3        0      752      751     1021
      839        3        3        3        0      751      750     1019
      840        3        3        3        0      750      710      943
-1
eblock,10,,,20
(15i9)
      841        4        3        4        0      673      671
      842        4        3        4        0      671      670
      843        4        3        4        0      670      669
      844        4        3        4        0      669      668
      845        4        3        4        0      668      667
      846        4        3        4        0      667      666
      847        4        3        4        0      666      665
      848        4        3        4        0      665      664
      849        4        3        4        0      664      663
      850        4        3        4        0      663      662
      851        4        3        4        0      662      661
      852        4        3        4        0      661      660
      853        4        3        4        0      660      659
      854        4        3        4        0      659      658
      855        4        3        4        0      658      657
      856        4        3        4        0      657      656
      857        4        3        4        0      656      655
      858        4        3        4        0      655      654
      859        4        3        4        0      654      652
      860        4        3        4        0      652      653
-1
tshape
esel,s,type,,cid
esel,r,real,,cid
*get,_elow,elem,0,num,min
enorm,_elow,,,,,NOWARN       ! enorm in case the edges are not aligned. don't issues warnings
esel,s,type,,tid
esel,r,real,,cid
*get,_elow,elem,0,num,min
enorm,_elow,,,,,NOWARN       ! enorm in case the edges are not aligned. don't issues warnings
keyo,cid,3,2               ! beam-beam or line segments edge contact, include all possible contact
keyo,cid,10,0              ! adjust contact stiffness each NR iteration (from Program Controlled setting)
keyo,cid,12,5              ! bonded always
keyo,cid,18,1              ! small sliding turned on by application
keyo,cid,2,2               ! MPC for bonded contacts shell-shell/solid-shell (from Program Controlled setting)
keyo,tid,5,4               ! Force Distributed Constraint, All Directions
keyo,cid,9,1               ! ignore initial gaps/penetration
keyo,cid,7,0               ! No Prediction
rmod,cid,3,10.      ! FKN
rmod,cid,5,0.       ! ICONT
rmod,cid,6,0.       ! PINB
rmod,cid,10,0.      ! CNOF
rmod,cid,12,0.      ! FKT
rmod,cid,36,62      ! WB DSID
nsel,all
esel,all
/wb,contact,end            !  done creating contacts
/golist
/wb,load,start             !  starting to send loads
/com,*********** Fixed Supports ***********
CMBLOCK,_FIXEDSU,NODE,       21
(8i10)
       632       633       634       635       636       637       638       639
       640       641       642       643       644       645       646       647
       648       649       650       651       653
cmsel,s,_FIXEDSU
d,all,all
nsel,all
/com,*********** Define Line Pressure Vector Using Surface Effect Elements ***********
local,12,0,0.,0.,0.,0.,0.,0.
csys,0
et,5,156
mat,5
keyop,5,5,1         !  No orientation node
eblock,10,,,20
(15i9)
      861        5        5        5       12      689      688
      862        5        5        5       12      690      689
      863        5        5        5       12      691      690
      864        5        5        5       12      692      691
      865        5        5        5       12      693      692
      866        5        5        5       12      694      693
      867        5        5        5       12      695      694
      868        5        5        5       12      696      695
      869        5        5        5       12      697      696
      870        5        5        5       12      698      697
      871        5        5        5       12      699      698
      872        5        5        5       12      700      699
      873        5        5        5       12      701      700
      874        5        5        5       12      702      701
      875        5        5        5       12      703      702
      876        5        5        5       12      704      703
      877        5        5        5       12      705      704
      878        5        5        5       12      706      705
      879        5        5        5       12      707      706
      880        5        5        5       12      708      707
-1
esel,s,type,,5
keyop,5,2,1                ! Apply load in local coordinate system
esel,all
/com,*********** Define Vertex Force Using Follower Elements ***********
et,6,201
keyo,6,1,1           ! Keep the direction constant
keyo,6,2,1           ! Apply Forces only, not moment
mat,6
real,6
type,6
en,881,708
r,6
rmod,6,1,1.0,              ! FX
mat,7
real,7
type,6
en,882,708
r,7
rmod,7,2,1.0,              ! FY
mat,8
real,8
type,6
en,883,708
r,8
rmod,8,3,1.0,              ! FZ
/gst,on,on
fini
*get,_numnode,node,0,count
*get,_numelem,elem,0,count
*get, _MAXELEMNUM, elem, 0, NUM, MAX
*get, _MAXNODENUM, node, 0, NUM, MAX
*get, _MAXELEMTYPE, etyp, 0, NUM, MAX
*get, _MAXREALCONST, rcon, 0, NUM, MAX
/go
/wb,load,end               !  done creating loads
/com,--- Number of total nodes = %_numnode%
/com,--- Number of contact elements = 60
/com,--- Number of spring elements = 0
/com,--- Number of bearing elements = 0
/com,--- Number of solid elements = 820
/com,--- Number of condensed parts = 0
/com,--- Number of total elements = %_numelem%
*get,_wallbsol,active,,time,wall
/com,****************************************************************************
/com,*************************    SOLUTION       ********************************
/com,****************************************************************************
/solu
antype,0                   ! static analysis
_thickRatio=  0     ! Ratio of thick parts in the model
eqsl,sparse,,,,,1
cntr,print,1               ! print out contact info and also make no initial contact an error
cncheck,dmp		!	Enable program controlled contact splitting for distributed memory parallel run
dmpoption,emat,no             ! Don't combine emat file for DANSYS
dmpoption,esav,no             ! Don't combine esav file for DANSYS
nldiag,cont,iter           ! print out contact info each equilibrium iteration
rescontrol,,none                 ! Do not keep any restart files
/com,****************************************************
/com,******************* SOLVE FOR LS 1 OF 1 ****************
esel,s,type,,5
nsle
sfe,all,1,pres,1,100.
sfe,all,2,pres,1,0.
sfe,all,3,pres,1,2.60208521396521e-014
nsel,all
esel,all
esel,s,real,,6
sfe,all,1,pres,1,0.
esel,s,real,,7
sfe,all,1,pres,1,0.
esel,s,real,,8
sfe,all,1,pres,1,50.
esel,all
/nopr
/gopr
nsub,1,1,1
time,1.
outres,erase
outres,all,none
outres,nsol,all,
outres,rsol,all
outres,eangl,all
outres,etmp,all
outres,veng,all
outres,strs,all,
outres,epel,all,
outres,eppl,all,
outres,cont,all,
! *********** WB SOLVE COMMAND ***********
! check interactive state
*get,ANSINTER_,active,,int
*if,ANSINTER_,ne,0,then
/eof
*endif
solve
/com *************** Write FE CONNECTORS ********* 
CEWRITE,file,ce,,INTE
/com,****************************************************
/com,*************** FINISHED SOLVE FOR LS 1 *************
save,file,db
*get,_wallasol,active,,time,wall
/nopr
*get,_numnode,node,0,count
*get,_numelem,elem,0,count
*get, _MAXELEMNUM, elem, 0, NUM, MAX
*get, _MAXNODENUM, node, 0, NUM, MAX,,,INTERNAL
*get, _MAXELEMTYPE, etyp, 0, NUM, MAX
*get, _MAXREALCONST, rcon, 0, NUM, MAX
*get,_NSOLTHREADS,active,0,ntfs
*get,_NSOLPROCESSES,active,0,npfs
/gopr
/post1
xmlo,ENCODING,ISO-8859-1
xmlo,parm
/xml,parm,xml
fini
/gopr
*get,_walldone,active,,time,wall
_preptime=(_wallbsol-_wallstrt)*3600
_solvtime=(_wallasol-_wallbsol)*3600
_posttime=(_walldone-_wallasol)*3600
_totaltim=(_walldone-_wallstrt)*3600
*get,_dlbratio,active,0,solu,dlbr
*get,_combtime,active,0,solu,comb
*get,_ssmode,active,0,solu,ssmm
*get,_ndofs,active,0,solu,ndof
/com,--- Total number of nodes = %_numnode%
/com,--- Total number of elements = %_numelem%
/com,--- Element load balance ratio = %_dlbratio%
/com,--- Time to combine distributed files = %_combtime%
/com,--- Sparse memory mode = %_ssmode%
/com,--- Number of DOF = %_ndofs%
/wb,file,end               ! done with WB generated input
