/batch
/config,noeldb,1     ! force off writing results to database
*get,_wallstrt,active,,time,wall
! ANSYS input file written by Workbench version 2023 R2
! File used for geometry attach: C:\Users\Administrator\Documents\Discovery Projects\ansysplusplus_files\dp0\Geom-1\DM\Geom-1.scdoc
/title,ansysplusplus--Structure statique (D5)
! ****** Begin Custom Load Command Snippet ******
/COM, ACT Extensions:
/COM,     LSDYNA, 2023.2
/COM,     5f463412-bd3e-484b-87e7-cbc0a665e474, wbex
/COM,/COM,     ANSYSMotion, 2023.2
/COM,     20180725-3f81-49eb-9f31-41364844c769, wbex
/COM,
! ****** End   Custom Load Command Snippet ******
*DIM,_wb_ProjectScratch_dir,string,248
_wb_ProjectScratch_dir(1) = 'C:\Users\Administrator\Documents\Discovery Projects\_ProjectScratch\ScrB127\'
*DIM,_wb_SolverFiles_dir,string,248
_wb_SolverFiles_dir(1) = 'C:\Users\Administrator\Documents\Discovery Projects\ansysplusplus_files\dp0\SYS-1\MECH\'
*DIM,_wb_userfiles_dir,string,248
_wb_userfiles_dir(1) = 'C:\Users\Administrator\Documents\Discovery Projects\ansysplusplus_files\user_files\'
/com,--- Data in consistent MKS units. See Solving Units in the help system for more information.
/units,MKS
/nopr
/wb,file,start              !  signify a WB generated input file
/prep7
! Turn off shape checking because checks already performed inside WB mesher.
! See help system for more information.
SHPP,OFF,,NOWARN
/nolist
etcon,set             ! allow ANSYS to choose best KEYOP's for 180x elements, resets any applicable keyopt to MAPDL defaults
/com,*********** Nodes for the whole assembly ***********
nblock,3,,357
(1i9,3e20.9e3)
        1     5.000000000E-03     5.000000000E-04     1.000000000E-02
        2     5.096073598E-03     5.000000000E-04     1.097545161E-02
        3     5.380602337E-03     5.000000000E-04     1.191341716E-02
        4     5.842651938E-03     5.000000000E-04     1.277785117E-02
        5     6.464466094E-03     5.000000000E-04     1.353553391E-02
        6     7.222148835E-03     5.000000000E-04     1.415734806E-02
        7     8.086582838E-03     5.000000000E-04     1.461939766E-02
        8     9.024548390E-03     5.000000000E-04     1.490392640E-02
        9     1.000000000E-02     5.000000000E-04     1.500000000E-02
       10     1.097545161E-02     5.000000000E-04     1.490392640E-02
       11     1.191341716E-02     5.000000000E-04     1.461939766E-02
       12     1.277785117E-02     5.000000000E-04     1.415734806E-02
       13     1.353553391E-02     5.000000000E-04     1.353553391E-02
       14     1.415734806E-02     5.000000000E-04     1.277785117E-02
       15     1.461939766E-02     5.000000000E-04     1.191341716E-02
       16     1.490392640E-02     5.000000000E-04     1.097545161E-02
       17     1.500000000E-02     5.000000000E-04     1.000000000E-02
       18     1.490392640E-02     5.000000000E-04     9.024548390E-03
       19     1.461939766E-02     5.000000000E-04     8.086582838E-03
       20     1.415734806E-02     5.000000000E-04     7.222148835E-03
! ... 306 like lines cut
/wb,elem,start            !  set before creation of elements
/com,*********** Elements for Body 1 "Surface moyenne - Corps\Surface moyenne1" ***********
et,1,181
keyo,1,1,0       ! bending and membrane stiffness
keyo,1,3,2
eblock,19,solid,,482
(19i9)
        1        1        1        1        0        0        0        0        4        0        1      196      297      316      316
        1        1        1        1        0        0        0        0        4        0        2      252      273      178      178
        1        1        1        1        0        0        0        0        4        0        3      182      234      251      251
        1        1        1        1        0        0        0        0        4        0        4      176      231      249      249
        1        1        1        1        0        0        0        0        4        0        5      197      198      322      322
        1        1        1        1        0        0        0        0        4        0        6      200      309      215      215
        1        1        1        1        0        0        0        0        4        0        7      188      246      226      226
        1        1        1        1        0        0        0        0        4        0        8      174      245      224      224
        1        1        1        1        0        0        0        0        4        0        9      180      221      245      245
        1        1        1        1        0        0        0        0        4        0       10      203      244      257      257
        1        1        1        1        0        0        0        0        4        0       11      186      287      237      237
        1        1        1        1        0        0        0        0        4        0       12      204      313      257      257
        1        1        1        1        0        0        0        0        4        0       13      187      243      264      264
        1        1        1        1        0        0        0        0        4        0       14      176      249      266      266
        1        1        1        1        0        0        0        0        4        0       15      180      240      220      220
        1        1        1        1        0        0        0        0        4        0       16      171      215      280      280
        1        1        1        1        0        0        0        0        4        0       17      181      238      240      240
        1        1        1        1        0        0        0        0        4        0       18      213      279      298      298
        1        1        1        1        0        0        0        0        4        0       19      212      263      181      181
        1        1        1        1        0        0        0        0        4        0       20      217      230      262      262
! ... 463 like lines cut
!Material Id = {6F109564-FC5F-4896-980B-57A3F07CD939}
/wb,elem,end               !  done creating elements
/com,*********** Send User Defined Coordinate System(s) ***********
csys,0
toffst,273.15,  ! Temperature offset from absolute zero
/com,*********** Set Reference Temperature ***********
tref,22.
/wb,mat,start              !  starting to send materials
/com,*********** Send Materials ***********
Temperature = 'TEMP' ! Temperature
MP,DENS,1,7850,	! kg m^-3
MP,ALPX,1,1.2e-05,	! C^-1
MP,C,1,434,	! J kg^-1 C^-1
MP,KXX,1,60.5,	! W m^-1 C^-1
MP,RSVX,1,1.7e-07,	! kg m^3 A^-2 s^-3
MP,EX,1,200000000000,	! Pa
MP,NUXY,1,0.3,
MP,MURX,1,10000,
MP,UVID,1,5861c8f9-0035-4705-8d0b-4d5d182466ed
MP,UMID,1,59002a79-71c2-428e-906b-55d7dbee100e

/wb,mat,end                !  done sending materials
/com,*********** Send Sheet Properties ***********
sectype,1,shell
secdata,1.e-003
secoff,mid

!************************* Model Summary ********************
!Surface moyenne - Corps\Surface moyenne1,	Acier standard,	matid,	1
!************************* End Model Summary ********************
! get the diagonal of the bounding box. Needed later for other things
*get,_xmin,node,,mnloc,x
*get,_ymin,node,,mnloc,y
*get,_zmin,node,,mnloc,z
*get,_xmax,node,,mxloc,x
*get,_ymax,node,,mxloc,y
*get,_zmax,node,,mxloc,z
_ASMDIAG=(_xmax-_xmin)*(_xmax-_xmin)+(_ymax-_ymin)*(_ymax-_ymin)+(_zmax-_zmin)*(_zmax-_zmin)
_ASMDIAG=SQRT(_ASMDIAG)
/wb,contact,start          !  starting to send contact
/wb,contact,end            !  done creating contacts
/golist
/wb,load,start             !  starting to send loads
/com,*********** Fixed Supports ***********
CMBLOCK,_FIXEDSU,NODE,       21
(8i10)
        50        70        71        72        73        74        75        76
        77        78        79        80        81        82        83        84
        85        86        87        88        89
cmsel,s,_FIXEDSU
d,all,all
nsel,all
/com,*********** Define Vertex Force Using Follower Elements ***********
et,2,201
keyo,2,1,1           ! Keep the direction constant
keyo,2,2,1           ! Apply Forces only, not moment
mat,2
real,2
type,2
en,483,140
r,2
rmod,2,1,1.0,              ! FX
mat,3
real,3
type,2
en,484,140
r,3
rmod,3,2,1.0,              ! FY
mat,4
real,4
type,2
en,485,140
r,4
rmod,4,3,1.0,              ! FZ
/gst,on,on
fini
*get,_numnode,node,0,count
*get,_numelem,elem,0,count
*get, _MAXELEMNUM, elem, 0, NUM, MAX
*get, _MAXNODENUM, node, 0, NUM, MAX
*get, _MAXELEMTYPE, etyp, 0, NUM, MAX
*get, _MAXREALCONST, rcon, 0, NUM, MAX
/go
/wb,load,end               !  done creating loads
/com,--- Number of total nodes = %_numnode%
/com,--- Number of contact elements = 0
/com,--- Number of spring elements = 0
/com,--- Number of bearing elements = 0
/com,--- Number of solid elements = 482
/com,--- Number of condensed parts = 0
/com,--- Number of total elements = %_numelem%
*get,_wallbsol,active,,time,wall
/com,****************************************************************************
/com,*************************    SOLUTION       ********************************
/com,****************************************************************************
/solu
antype,0                   ! static analysis
_thickRatio=  0     ! Ratio of thick parts in the model
eqsl,sparse,,,,,1
cntr,print,1               ! print out contact info and also make no initial contact an error
cncheck,dmp		!	Enable program controlled contact splitting for distributed memory parallel run
dmpoption,emat,no             ! Don't combine emat file for DANSYS
dmpoption,esav,no             ! Don't combine esav file for DANSYS
nldiag,cont,iter           ! print out contact info each equilibrium iteration
rescontrol,,none                 ! Do not keep any restart files
/com,****************************************************
/com,******************* SOLVE FOR LS 1 OF 1 ****************
esel,s,real,,2
sfe,all,1,pres,1,0.
esel,s,real,,3
sfe,all,1,pres,1,0.
esel,s,real,,4
sfe,all,1,pres,1,50.
esel,all
/nopr
/gopr
nsub,1,1,1
time,1.
outres,erase
outres,all,none
outres,nsol,all,
outres,rsol,all
outres,eangl,all
outres,etmp,all
outres,veng,all
outres,strs,all,
outres,epel,all,
outres,eppl,all,
outres,cont,all,
! *********** WB SOLVE COMMAND ***********
! check interactive state
*get,ANSINTER_,active,,int
*if,ANSINTER_,ne,0,then
/eof
*endif
solve
/com *************** Write FE CONNECTORS ********* 
CEWRITE,file,ce,,INTE
/com,****************************************************
/com,*************** FINISHED SOLVE FOR LS 1 *************
*get,_wallasol,active,,time,wall
/nopr
*get,_numnode,node,0,count
*get,_numelem,elem,0,count
*get, _MAXELEMNUM, elem, 0, NUM, MAX
*get, _MAXNODENUM, node, 0, NUM, MAX,,,INTERNAL
*get, _MAXELEMTYPE, etyp, 0, NUM, MAX
*get, _MAXREALCONST, rcon, 0, NUM, MAX
*get,_NSOLTHREADS,active,0,ntfs
*get,_NSOLPROCESSES,active,0,npfs
/gopr
/post1
xmlo,ENCODING,ISO-8859-1
xmlo,parm
/xml,parm,xml
fini
/gopr
*get,_walldone,active,,time,wall
_preptime=(_wallbsol-_wallstrt)*3600
_solvtime=(_wallasol-_wallbsol)*3600
_posttime=(_walldone-_wallasol)*3600
_totaltim=(_walldone-_wallstrt)*3600
*get,_dlbratio,active,0,solu,dlbr
*get,_combtime,active,0,solu,comb
*get,_ssmode,active,0,solu,ssmm
*get,_ndofs,active,0,solu,ndof
*get,_sol_end_time,active,0,set,time
*if,_sol_end_time,eq,1.000000,then
/fclean				!clean distributed files
*endif
/com,--- Total number of nodes = %_numnode%
/com,--- Total number of elements = %_numelem%
/com,--- Element load balance ratio = %_dlbratio%
/com,--- Time to combine distributed files = %_combtime%
/com,--- Sparse memory mode = %_ssmode%
/com,--- Number of DOF = %_ndofs%
/wb,file,end               ! done with WB generated input
