/batch
/config,noeldb,1     ! force off writing results to database
*get,_wallstrt,active,,time,wall
! ANSYS input file written by Workbench version 2023 R2
! File used for geometry attach: C:\Users\Administrator\Documents\Discovery Projects\small_struct.dsco
/title,wbnew--Structure statique (B5)
! ****** Begin Custom Load Command Snippet ******
/COM, ACT Extensions:
/COM,     LSDYNA, 2023.2
/COM,     5f463412-bd3e-484b-87e7-cbc0a665e474, wbex
/COM,/COM,     ANSYSMotion, 2023.2
/COM,     20180725-3f81-49eb-9f31-41364844c769, wbex
/COM,
! ****** End   Custom Load Command Snippet ******
*DIM,_wb_ProjectScratch_dir,string,248
_wb_ProjectScratch_dir(1) = 'C:\Users\Administrator\AppData\Local\Temp\WB_Administrator_17212_2\_ProjectScratch\ScrCDFA\'
*DIM,_wb_SolverFiles_dir,string,248
_wb_SolverFiles_dir(1) = 'C:\Users\Administrator\AppData\Local\Temp\WB_Administrator_17212_2\wbnew_files\dp0\SYS\MECH\'
*DIM,_wb_userfiles_dir,string,248
_wb_userfiles_dir(1) = 'C:\Users\Administrator\AppData\Local\Temp\WB_Administrator_17212_2\wbnew_files\user_files\'
/com,--- Data in consistent MKS units. See Solving Units in the help system for more information.
/units,MKS
/nopr
/wb,file,start              !  signify a WB generated input file
/prep7
! Turn off shape checking because checks already performed inside WB mesher.
! See help system for more information.
SHPP,OFF,,NOWARN
/nolist
etcon,set             ! allow ANSYS to choose best KEYOP's for 180x elements, resets any applicable keyopt to MAPDL defaults
/com,*********** Nodes for the whole assembly ***********
nblock,3,,1061
(1i9,3e20.9e3)
        1     2.500000000E-02     0.000000000E+00     5.000000000E-04
        2     3.500000000E-02    -1.000000000E-02     5.000000000E-04
        3     2.503805302E-02    -8.715574275E-04     5.000000000E-04
        4     2.515192247E-02    -1.736481777E-03     5.000000000E-04
        5     2.534074174E-02    -2.588190451E-03     5.000000000E-04
        6     2.560307379E-02    -3.420201433E-03     5.000000000E-04
        7     2.593692213E-02    -4.226182617E-03     5.000000000E-04
        8     2.633974596E-02    -5.000000000E-03     5.000000000E-04
        9     2.680847956E-02    -5.735764364E-03     5.000000000E-04
       10     2.733955557E-02    -6.427876097E-03     5.000000000E-04
       11     2.792893219E-02    -7.071067812E-03     5.000000000E-04
       12     2.857212390E-02    -7.660444431E-03     5.000000000E-04
       13     2.926423564E-02    -8.191520443E-03     5.000000000E-04
       14     3.000000000E-02    -8.660254038E-03     5.000000000E-04
       15     3.077381738E-02    -9.063077870E-03     5.000000000E-04
       16     3.157979857E-02    -9.396926208E-03     5.000000000E-04
       17     3.241180955E-02    -9.659258263E-03     5.000000000E-04
       18     3.326351822E-02    -9.848077530E-03     5.000000000E-04
       19     3.412844257E-02    -9.961946981E-03     5.000000000E-04
       20     0.000000000E+00     0.000000000E+00     5.000000000E-04
! ... 946 like lines cut
/wb,elem,start            !  set before creation of elements
/com,*********** Elements for Body 1 "small_struct\Corps - Surface moyenne1" ***********
et,1,181
keyo,1,1,0       ! bending and membrane stiffness
keyo,1,3,2
eblock,19,solid,,874
(19i9)
        1        1        1        1        0        0        0        0        4        0        1      769      770      480      480
        1        1        1        1        0        0        0        0        4        0        2      437      477      438      438
        1        1        1        1        0        0        0        0        4        0        3      363      362      958      958
        1        1        1        1        0        0        0        0        4        0        4      247      220      244      244
        1        1        1        1        0        0        0        0        4        0        5      220      965      219      219
        1        1        1        1        0        0        0        0        4        0        6      267      210      229      229
        1        1        1        1        0        0        0        0        4        0        7      211      212      959      959
        1        1        1        1        0        0        0        0        4        0        8      228      202      952      255
        1        1        1        1        0        0        0        0        4        0        9      228      954      935      218
        1        1        1        1        0        0        0        0        4        0       10      202      228      218      217
        1        1        1        1        0        0        0        0        4        0       11      228      927      200      954
        1        1        1        1        0        0        0        0        4        0       12      191      354      313      192
        1        1        1        1        0        0        0        0        4        0       13      192      313      271      345
        1        1        1        1        0        0        0        0        4        0       14      208      198      223      959
        1        1        1        1        0        0        0        0        4        0       15      223      198      199      224
        1        1        1        1        0        0        0        0        4        0       16      268      451      450      272
        1        1        1        1        0        0        0        0        4        0       17      254      285      451      268
        1        1        1        1        0        0        0        0        4        0       18      763      420      421      190
        1        1        1        1        0        0        0        0        4        0       19      763      190      419      762
        1        1        1        1        0        0        0        0        4        0       20      419      190      555      554
! ... 855 like lines cut
!Material Id = {CBB53D38-28FB-4AF2-8762-E531072ADDC5}
/wb,elem,end               !  done creating elements
/com,*********** Send User Defined Coordinate System(s) ***********
csys,0
toffst,273.15,  ! Temperature offset from absolute zero
/com,*********** Set Reference Temperature ***********
tref,22.
/wb,mat,start              !  starting to send materials
/com,*********** Send Materials ***********
MP,EX,1,210000000000,	! Pa
MP,NUXY,1,0.3046,
MP,DENS,1,7850,	! kg m^-3
MP,ALPX,1,1.196e-05,	! C^-1
MP,C,1,479.4,	! J kg^-1 C^-1
MP,KXX,1,50.44,	! W m^-1 C^-1
MP,UVID,1,1bd546c3-5521-48af-a074-3413eb868ba8

/wb,mat,end                !  done sending materials
/com,*********** Send Sheet Properties ***********
sectype,1,shell
secdata,1.e-003
secoff,mid

!************************* Model Summary ********************
!small_struct\Corps - Surface moyenne1,	Structural steel, S275N,	matid,	1
!************************* End Model Summary ********************
! get the diagonal of the bounding box. Needed later for other things
*get,_xmin,node,,mnloc,x
*get,_ymin,node,,mnloc,y
*get,_zmin,node,,mnloc,z
*get,_xmax,node,,mxloc,x
*get,_ymax,node,,mxloc,y
*get,_zmax,node,,mxloc,z
_ASMDIAG=(_xmax-_xmin)*(_xmax-_xmin)+(_ymax-_ymin)*(_ymax-_ymin)+(_zmax-_zmin)*(_zmax-_zmin)
_ASMDIAG=SQRT(_ASMDIAG)
/wb,contact,start          !  starting to send contact
/wb,contact,end            !  done creating contacts
/golist
/wb,load,start             !  starting to send loads
/com,*********** Fixed Supports ***********
CMBLOCK,_FIXEDSU,NODE,       24
(8i10)
        20        48        49        50        51        52        53        54
        55        56        57        58        59        60        61        62
        63        64        65        66        67        68        69        70

cmsel,s,_FIXEDSU
d,all,all
nsel,all
/com,*********** Define Vertex Force Using Follower Elements ***********
et,2,201
keyo,2,1,1           ! Keep the direction constant
keyo,2,2,1           ! Apply Forces only, not moment
mat,2
real,2
type,2
en,875,127
r,2
rmod,2,1,1.0,              ! FX
mat,3
real,3
type,2
en,876,127
r,3
rmod,3,2,1.0,              ! FY
mat,4
real,4
type,2
en,877,127
r,4
rmod,4,3,1.0,              ! FZ
/gst,on,on
fini
*get,_numnode,node,0,count
*get,_numelem,elem,0,count
*get, _MAXELEMNUM, elem, 0, NUM, MAX
*get, _MAXNODENUM, node, 0, NUM, MAX
*get, _MAXELEMTYPE, etyp, 0, NUM, MAX
*get, _MAXREALCONST, rcon, 0, NUM, MAX
/go
/wb,load,end               !  done creating loads
/com,--- Number of total nodes = %_numnode%
/com,--- Number of contact elements = 0
/com,--- Number of spring elements = 0
/com,--- Number of bearing elements = 0
/com,--- Number of solid elements = 874
/com,--- Number of condensed parts = 0
/com,--- Number of total elements = %_numelem%
*get,_wallbsol,active,,time,wall
/com,****************************************************************************
/com,*************************    SOLUTION       ********************************
/com,****************************************************************************
/solu
antype,0                   ! static analysis
_thickRatio=  0     ! Ratio of thick parts in the model
eqsl,sparse,,,,,1
cntr,print,1               ! print out contact info and also make no initial contact an error
cncheck,dmp		!	Enable program controlled contact splitting for distributed memory parallel run
dmpoption,emat,no             ! Don't combine emat file for DANSYS
dmpoption,esav,no             ! Don't combine esav file for DANSYS
nldiag,cont,iter           ! print out contact info each equilibrium iteration
rescontrol,,none                 ! Do not keep any restart files
/com,****************************************************
/com,******************* SOLVE FOR LS 1 OF 1 ****************
esel,s,real,,2
sfe,all,1,pres,1,0.
esel,s,real,,3
sfe,all,1,pres,1,-150.
esel,s,real,,4
sfe,all,1,pres,1,0.
esel,all
/nopr
/gopr
nsub,1,1,1
time,1.
outres,erase
outres,all,none
outres,nsol,all,
outres,rsol,all
outres,eangl,all
outres,etmp,all
outres,veng,all
outres,strs,all,
outres,epel,all,
outres,eppl,all,
outres,cont,all,
! *********** WB SOLVE COMMAND ***********
! check interactive state
*get,ANSINTER_,active,,int
*if,ANSINTER_,ne,0,then
/eof
*endif
solve
/com *************** Write FE CONNECTORS ********* 
CEWRITE,file,ce,,INTE
/com,****************************************************
/com,*************** FINISHED SOLVE FOR LS 1 *************
*get,_wallasol,active,,time,wall
/nopr
*get,_numnode,node,0,count
*get,_numelem,elem,0,count
*get, _MAXELEMNUM, elem, 0, NUM, MAX
*get, _MAXNODENUM, node, 0, NUM, MAX,,,INTERNAL
*get, _MAXELEMTYPE, etyp, 0, NUM, MAX
*get, _MAXREALCONST, rcon, 0, NUM, MAX
*get,_NSOLTHREADS,active,0,ntfs
*get,_NSOLPROCESSES,active,0,npfs
/gopr
/post1
xmlo,ENCODING,ISO-8859-1
xmlo,parm
/xml,parm,xml
fini
/gopr
*get,_walldone,active,,time,wall
_preptime=(_wallbsol-_wallstrt)*3600
_solvtime=(_wallasol-_wallbsol)*3600
_posttime=(_walldone-_wallasol)*3600
_totaltim=(_walldone-_wallstrt)*3600
*get,_dlbratio,active,0,solu,dlbr
*get,_combtime,active,0,solu,comb
*get,_ssmode,active,0,solu,ssmm
*get,_ndofs,active,0,solu,ndof
*get,_sol_end_time,active,0,set,time
*if,_sol_end_time,eq,1.000000,then
/fclean				!clean distributed files
*endif
/com,--- Total number of nodes = %_numnode%
/com,--- Total number of elements = %_numelem%
/com,--- Element load balance ratio = %_dlbratio%
/com,--- Time to combine distributed files = %_combtime%
/com,--- Sparse memory mode = %_ssmode%
/com,--- Number of DOF = %_ndofs%
/wb,file,end               ! done with WB generated input
