/batch
/config,noeldb,1     ! force off writing results to database
*get,_wallstrt,active,,time,wall
! ANSYS input file written by Workbench version 2023 R2
! File used for geometry attach: C:\Users\Administrator\Documents\Discovery Projects\ansysplusplus_files\dp0\Geom-1\DM\Geom-1.scdoc
/title,ansysplusplus--Structure statique (D5)
! ****** Begin Custom Load Command Snippet ******
/COM, ACT Extensions:
/COM,     LSDYNA, 2023.2
/COM,     5f463412-bd3e-484b-87e7-cbc0a665e474, wbex
/COM,/COM,     ANSYSMotion, 2023.2
/COM,     20180725-3f81-49eb-9f31-41364844c769, wbex
/COM,
! ****** End   Custom Load Command Snippet ******
*DIM,_wb_ProjectScratch_dir,string,248
_wb_ProjectScratch_dir(1) = 'C:\Users\Administrator\Documents\Discovery Projects\_ProjectScratch\ScrE634\'
*DIM,_wb_SolverFiles_dir,string,248
_wb_SolverFiles_dir(1) = 'C:\Users\Administrator\Documents\Discovery Projects\ansysplusplus_files\dp0\SYS-1\MECH\'
*DIM,_wb_userfiles_dir,string,248
_wb_userfiles_dir(1) = 'C:\Users\Administrator\Documents\Discovery Projects\ansysplusplus_files\user_files\'
/com,--- Data in consistent MKS units. See Solving Units in the help system for more information.
/units,MKS
/nopr
/wb,file,start              !  signify a WB generated input file
/prep7
! Turn off shape checking because checks already performed inside WB mesher.
! See help system for more information.
SHPP,OFF,,NOWARN
/nolist
etcon,set             ! allow ANSYS to choose best KEYOP's for 180x elements, resets any applicable keyopt to MAPDL defaults
/com,*********** Nodes for the whole assembly ***********
nblock,3,,1316
(1i9,3e20.9e3)
        1     2.000000000E-02     1.000000000E-03     0.000000000E+00
        2     3.000000000E-02     1.000000000E-03     1.000000000E-02
        3     2.019214720E-02     1.000000000E-03     1.950903220E-03
        4     2.076120467E-02     1.000000000E-03     3.826834324E-03
        5     2.168530388E-02     1.000000000E-03     5.555702330E-03
        6     2.292893219E-02     1.000000000E-03     7.071067812E-03
        7     2.444429767E-02     1.000000000E-03     8.314696123E-03
        8     2.617316568E-02     1.000000000E-03     9.238795325E-03
        9     2.804909678E-02     1.000000000E-03     9.807852804E-03
       10     3.000000000E-02     0.000000000E+00     1.000000000E-02
       11     2.000000000E-02     0.000000000E+00     0.000000000E+00
       12     2.019214720E-02     0.000000000E+00     1.950903220E-03
       13     2.076120467E-02     0.000000000E+00     3.826834324E-03
       14     2.168530388E-02     0.000000000E+00     5.555702330E-03
       15     2.292893219E-02     0.000000000E+00     7.071067812E-03
       16     2.444429767E-02     0.000000000E+00     8.314696123E-03
       17     2.617316568E-02     0.000000000E+00     9.238795325E-03
       18     2.804909678E-02     0.000000000E+00     9.807852804E-03
       19     5.000000000E-02     1.000000000E-03     1.000000000E-02
       20     3.200000000E-02     1.000000000E-03     1.000000000E-02
! ... 1178 like lines cut
/wb,elem,start            !  set before creation of elements
/com,*********** Elements for Body 1 "Geom-1\Corps" ***********
et,1,187
eblock,19,solid,,475
(19i9)
        1        1        1        1        0        0        0        0       10        0        1       23      201       34      237      349      396      347      350
     1127      398
        1        1        1        1        0        0        0        0       10        0        2       22      237      201       23      345     1127      344      341
      350      349
        1        1        1        1        0        0        0        0       10        0        3       23       34       24      237      347      353      346      350
      398      357
        1        1        1        1        0        0        0        0       10        0        4       23       34      201       35      347      396      349      348
      394      400
        1        1        1        1        0        0        0        0       10        0        5      200      237      208      201     1124     1155     1121     1119
     1127     1125
        1        1        1        1        0        0        0        0       10        0        6       22      201       35       23      344      400      342      341
      349      348
        1        1        1        1        0        0        0        0       10        0        7       21      237      201       22      340     1127      338      334
      345      344
        1        1        1        1        0        0        0        0       10        0        8      172      201      208      190     1002     1125     1003     1000
     1084     1085
        1        1        1        1        0        0        0        0       10        0        9      171      237      200      201      997     1124      992      993
     1127     1119
        1        1        1        1        0        0        0        0       10        0       10      172      200      208      201     1001     1121     1003     1002
     1119     1125
! ... 931 like lines cut
!Material Id = {96DEE163-921C-4B3B-B6FD-13F3BD8830E9}
/wb,elem,end               !  done creating elements
/com,*********** Send User Defined Coordinate System(s) ***********
csys,0
toffst,273.15,  ! Temperature offset from absolute zero
/com,*********** Set Reference Temperature ***********
tref,22.
/wb,mat,start              !  starting to send materials
/com,*********** Send Materials ***********
Temperature = 'TEMP' ! Temperature
MP,DENS,1,7850,	! kg m^-3
MP,ALPX,1,1.2e-05,	! C^-1
MP,C,1,434,	! J kg^-1 C^-1
MP,KXX,1,60.5,	! W m^-1 C^-1
MP,RSVX,1,1.7e-07,	! kg m^3 A^-2 s^-3
MP,EX,1,200000000000,	! Pa
MP,NUXY,1,0.3,
MP,MURX,1,10000,
MP,UVID,1,5861c8f9-0035-4705-8d0b-4d5d182466ed
MP,UMID,1,59002a79-71c2-428e-906b-55d7dbee100e

/wb,mat,end                !  done sending materials
!************************* Model Summary ********************
!Geom-1\Corps,	Acier standard,	matid,	1
!************************* End Model Summary ********************
! get the diagonal of the bounding box. Needed later for other things
*get,_xmin,node,,mnloc,x
*get,_ymin,node,,mnloc,y
*get,_zmin,node,,mnloc,z
*get,_xmax,node,,mxloc,x
*get,_ymax,node,,mxloc,y
*get,_zmax,node,,mxloc,z
_ASMDIAG=(_xmax-_xmin)*(_xmax-_xmin)+(_ymax-_ymin)*(_ymax-_ymin)+(_zmax-_zmin)*(_zmax-_zmin)
_ASMDIAG=SQRT(_ASMDIAG)
/wb,contact,start          !  starting to send contact
/wb,contact,end            !  done creating contacts
/golist
/wb,load,start             !  starting to send loads
/com,*********** Fixed Supports ***********
CMBLOCK,_FIXEDSU,NODE,       63
(8i10)
        49        74        99       100       101       102       103       104
       105       106       107       108       109       110       111       112
       113       114       115       116       117       118       446       447
       578       579       663       664       667       668       670       671
       672       674       675       676       677       681       682       683
       686       687       688       693       694       695       698       699
       700       704       705       707       708       709       713       715
       719       722       726       728       731       733       737
cmsel,s,_FIXEDSU
d,all,all
nsel,all
/com,*********** Define Force Using Surface Effect Elements ***********
local,12,0,0.,0.,0.,0.,0.,0.
csys,0
et,2,156
mat,2
keyop,2,5,1         !  No orientation node
eblock,10,,,1
(15i9)
      956        2        2        2       12       19       29      327
-1
esel,s,type,,2
keyop,2,2,1                ! Apply load in local coordinate system
keyop,2,7,1                ! Use original area so load is constant in large deformation
esel,all
/gst,on,on
fini
*get,_numnode,node,0,count
*get,_numelem,elem,0,count
*get, _MAXELEMNUM, elem, 0, NUM, MAX
*get, _MAXNODENUM, node, 0, NUM, MAX
*get, _MAXELEMTYPE, etyp, 0, NUM, MAX
*get, _MAXREALCONST, rcon, 0, NUM, MAX
/go
/wb,load,end               !  done creating loads
/com,--- Number of total nodes = %_numnode%
/com,--- Number of contact elements = 1
/com,--- Number of spring elements = 0
/com,--- Number of bearing elements = 0
/com,--- Number of solid elements = 475
/com,--- Number of condensed parts = 0
/com,--- Number of total elements = %_numelem%
*get,_wallbsol,active,,time,wall
/com,****************************************************************************
/com,*************************    SOLUTION       ********************************
/com,****************************************************************************
/solu
antype,0                   ! static analysis
_thickRatio=  0     ! Ratio of thick parts in the model
eqsl,sparse,,,,,1
cntr,print,1               ! print out contact info and also make no initial contact an error
cncheck,dmp		!	Enable program controlled contact splitting for distributed memory parallel run
dmpoption,emat,no             ! Don't combine emat file for DANSYS
dmpoption,esav,no             ! Don't combine esav file for DANSYS
nldiag,cont,iter           ! print out contact info each equilibrium iteration
rescontrol,,none                 ! Do not keep any restart files
/com,****************************************************
/com,******************* SOLVE FOR LS 1 OF 1 ****************
esel,s,type,,2
nsle
sfe,all,1,pres,1,0.
sfe,all,2,pres,1,0.
sfe,all,3,pres,1,50000.
nsel,all
esel,all
/nopr
/gopr
nsub,1,1,1
time,1.
outres,erase
outres,all,none
outres,nsol,all,
outres,rsol,all
outres,eangl,all
outres,etmp,all
outres,veng,all
outres,strs,all,
outres,epel,all,
outres,eppl,all,
outres,cont,all,
! *********** WB SOLVE COMMAND ***********
! check interactive state
*get,ANSINTER_,active,,int
*if,ANSINTER_,ne,0,then
/eof
*endif
solve
/com *************** Write FE CONNECTORS ********* 
CEWRITE,file,ce,,INTE
/com,****************************************************
/com,*************** FINISHED SOLVE FOR LS 1 *************
*get,_wallasol,active,,time,wall
/nopr
*get,_numnode,node,0,count
*get,_numelem,elem,0,count
*get, _MAXELEMNUM, elem, 0, NUM, MAX
*get, _MAXNODENUM, node, 0, NUM, MAX,,,INTERNAL
*get, _MAXELEMTYPE, etyp, 0, NUM, MAX
*get, _MAXREALCONST, rcon, 0, NUM, MAX
*get,_NSOLTHREADS,active,0,ntfs
*get,_NSOLPROCESSES,active,0,npfs
/gopr
/post1
xmlo,ENCODING,ISO-8859-1
xmlo,parm
/xml,parm,xml
fini
/gopr
*get,_walldone,active,,time,wall
_preptime=(_wallbsol-_wallstrt)*3600
_solvtime=(_wallasol-_wallbsol)*3600
_posttime=(_walldone-_wallasol)*3600
_totaltim=(_walldone-_wallstrt)*3600
*get,_dlbratio,active,0,solu,dlbr
*get,_combtime,active,0,solu,comb
*get,_ssmode,active,0,solu,ssmm
*get,_ndofs,active,0,solu,ndof
*get,_sol_end_time,active,0,set,time
*if,_sol_end_time,eq,1.000000,then
/fclean				!clean distributed files
*endif
/com,--- Total number of nodes = %_numnode%
/com,--- Total number of elements = %_numelem%
/com,--- Element load balance ratio = %_dlbratio%
/com,--- Time to combine distributed files = %_combtime%
/com,--- Sparse memory mode = %_ssmode%
/com,--- Number of DOF = %_ndofs%
/wb,file,end               ! done with WB generated input
